*Heading
** Job name: C3D15 Model name: Model-1
** Generated by: Abaqus/CAE 2021
*Preprint, echo=NO, model=NO, history=NO, contact=NO
**
** PARTS
**
*Part, name=Part-1
*Node
      1,          10.,           0.,           0.
      2,           0.,          15.,           0.
      3,         -10.,           0.,           0.
      4,   8.88888931,   1.66666663,           0.
      5,   7.77777767,   3.33333325,           0.
      6,   6.66666651,           5.,           0.
      7,   5.55555534,   6.66666651,           0.
      8,   4.44444466,   8.33333302,           0.
      9,   3.33333325,          10.,           0.
     10,   2.22222233,    11.666667,           0.
     11,   1.11111116,    13.333333,           0.
     12,          -8.,           0.,           0.
     13,          -6.,           0.,           0.
     14,          -4.,           0.,           0.
     15,          -2.,           0.,           0.
     16,           0.,           0.,           0.
     17,           2.,           0.,           0.
     18,           4.,           0.,           0.
     19,           6.,           0.,           0.
     20,           8.,           0.,           0.
** ... 6785 like lines cut
*Element, type=C3D15
   1,   10,   11,   29,   69,   70,   88, 1537, 1536, 1535, 1538, 1539, 1540, 1542, 1541, 1543
   2,   20,    1,    4,   79,   60,   63, 1546, 1545, 1544, 1547, 1548, 1549, 1551, 1550, 1552
   3,   30,   31,   42,   89,   90,  101, 1555, 1554, 1553, 1556, 1557, 1558, 1560, 1559, 1561
   4,   30,    5,   31,   89,   64,   90, 1563, 1562, 1555, 1564, 1565, 1556, 1560, 1566, 1559
   5,   31,    6,   32,   90,   65,   91, 1569, 1568, 1567, 1570, 1571, 1572, 1559, 1573, 1574
   6,   32,    7,   33,   91,   66,   92, 1577, 1576, 1575, 1578, 1579, 1580, 1574, 1581, 1582
   7,   39,   40,   47,   98,   99,  106, 1585, 1584, 1583, 1586, 1587, 1588, 1590, 1589, 1591
   8,   33,    8,   34,   92,   67,   93, 1594, 1593, 1592, 1595, 1596, 1597, 1582, 1598, 1599
   9,   21,   22,   29,   80,   81,   88, 1602, 1601, 1600, 1603, 1604, 1605, 1607, 1606, 1543
  10,   28,    3,   12,   87,   62,   71, 1610, 1609, 1608, 1611, 1612, 1613, 1615, 1614, 1616
  11,   36,   37,   46,   95,   96,  105, 1619, 1618, 1617, 1620, 1621, 1622, 1624, 1623, 1625
  12,   36,   13,   37,   95,   72,   96, 1627, 1626, 1619, 1628, 1629, 1620, 1624, 1630, 1623
  13,   37,   14,   38,   96,   73,   97, 1633, 1632, 1631, 1634, 1635, 1636, 1623, 1637, 1638
  14,   38,   15,   39,   97,   74,   98, 1641, 1640, 1639, 1642, 1643, 1644, 1638, 1645, 1590
  15,   53,   55,   59,  112,  114,  118, 1648, 1647, 1646, 1649, 1650, 1651, 1653, 1652, 1654
  16,   41,   42,   49,  100,  101,  108, 1657, 1656, 1655, 1658, 1659, 1660, 1661, 1561, 1662
  17,   19,   30,   42,   78,   89,  101, 1664, 1553, 1663, 1665, 1558, 1666, 1667, 1560, 1561
  18,   19,   20,   30,   78,   79,   89, 1669, 1668, 1664, 1670, 1671, 1665, 1667, 1551, 1560
  19,   11,    2,   21,   70,   61,   80, 1674, 1673, 1672, 1675, 1676, 1677, 1541, 1678, 1607
  20,   11,   21,   29,   70,   80,   88, 1672, 1600, 1536, 1677, 1605, 1539, 1541, 1607, 1543
** ... 2180 like lines cut
*Nset, nset=top
 1476, 1477, 1478, 1479, 1480, 1481, 1482, 1483, 1484, 1485, 1486, 1487, 1488, 1489, 1490, 1491
 1492, 1493, 1494, 1495, 1496, 1497, 1498, 1499, 1500, 1501, 1502, 1503, 1504, 1505, 1506, 1507
 1508, 1509, 1510, 1511, 1512, 1513, 1514, 1515, 1516, 1517, 1518, 1519, 1520, 1521, 1522, 1523
 1524, 1525, 1526, 1527, 1528, 1529, 1530, 1531, 1532, 1533, 1534, 6601, 6602, 6603, 6607, 6608
 6609, 6613, 6614, 6615, 6619, 6620, 6622, 6623, 6624, 6627, 6628, 6629, 6632, 6633, 6634, 6638
 6639, 6640, 6643, 6644, 6645, 6648, 6649, 6650, 6654, 6655, 6656, 6660, 6661, 6663, 6664, 6665
 6668, 6669, 6670, 6672, 6673, 6674, 6678, 6679, 6680, 6683, 6684, 6686, 6687, 6688, 6689, 6690
 6692, 6693, 6695, 6696, 6697, 6700, 6701, 6702, 6705, 6706, 6707, 6708, 6710, 6711, 6712, 6713
 6714, 6717, 6718, 6719, 6722, 6723, 6724, 6725, 6726, 6729, 6730, 6731, 6733, 6734, 6735, 6736
 6737, 6738, 6740, 6741, 6742, 6743, 6744, 6745, 6746, 6747, 6748, 6749, 6750, 6751, 6752, 6753
 6754, 6755, 6757, 6758, 6759, 6761, 6762, 6763, 6764, 6765, 6767, 6768, 6769, 6770, 6771, 6772
 6774, 6775, 6776, 6777, 6779, 6780, 6781, 6782, 6784, 6785, 6786, 6787, 6789, 6790, 6791, 6792
 6793, 6794, 6795, 6796, 6797, 6798, 6799, 6800, 6801, 6802, 6803, 6804, 6805
*Elset, elset=top, generate
 2113,  2200,     1
*Nset, nset=bottom
    1,    2,    3,    4,    5,    6,    7,    8,    9,   10,   11,   12,   13,   14,   15,   16
   17,   18,   19,   20,   21,   22,   23,   24,   25,   26,   27,   28,   29,   30,   31,   32
   33,   34,   35,   36,   37,   38,   39,   40,   41,   42,   43,   44,   45,   46,   47,   48
   49,   50,   51,   52,   53,   54,   55,   56,   57,   58,   59, 1535, 1536, 1537, 1544, 1545
 1546, 1553, 1554, 1555, 1562, 1563, 1567, 1568, 1569, 1575, 1576, 1577, 1583, 1584, 1585, 1592
 1593, 1594, 1600, 1601, 1602, 1608, 1609, 1610, 1617, 1618, 1619, 1626, 1627, 1631, 1632, 1633
 1639, 1640, 1641, 1646, 1647, 1648, 1655, 1656, 1657, 1663, 1664, 1668, 1669, 1672, 1673, 1674
 1679, 1680, 1684, 1685, 1686, 1692, 1693, 1694, 1700, 1701, 1704, 1705, 1709, 1710, 1713, 1714
 1715, 1721, 1722, 1723, 1729, 1730, 1733, 1734, 1735, 1741, 1743, 1744, 1748, 1750, 1752, 1754
 1755, 1756, 1761, 1762, 1765, 1767, 1769, 1770, 1773, 1775, 1777, 1779, 1781, 1783, 1785, 1786
 1789, 1790, 1794, 1795, 1796, 1801, 1803, 1804, 1807, 1808, 1812, 1813, 1814, 1818, 1819, 1820
 1825, 1827, 1828, 1829, 1834, 1835, 1838, 1839, 1843, 1844, 1847, 1848, 1852, 1854, 1856, 1858
 1859, 1862, 1864, 1865, 1868, 1870, 1872, 1874, 1875, 1878, 1880, 1882, 1883
*Elset, elset=bottom, generate
  1,  88,   1
*Nset, nset=RubberSet, generate
    1,  6805,     1
*Elset, elset=RubberSet, generate
    1,  2200,     1
** Section: Section-1
*Solid Section, elset=RubberSet, material=Material-1
,
*End Part
**  
**
** ASSEMBLY
**
*Assembly, name=Assembly
**  
*Instance, name=Part-1-1, part=Part-1
*End Instance
**  
*Node
      1,           0.,           0.,          50.
*Nset, nset=_PickedSet5, internal
 1,
*Nset, nset=_PickedSet7, internal
 1,
*Nset, nset=_PickedSet8, internal, instance=Part-1-1
    1,    2,    3,    4,    5,    6,    7,    8,    9,   10,   11,   12,   13,   14,   15,   16
   17,   18,   19,   20,   21,   22,   23,   24,   25,   26,   27,   28,   29,   30,   31,   32
   33,   34,   35,   36,   37,   38,   39,   40,   41,   42,   43,   44,   45,   46,   47,   48
   49,   50,   51,   52,   53,   54,   55,   56,   57,   58,   59, 1535, 1536, 1537, 1544, 1545
 1546, 1553, 1554, 1555, 1562, 1563, 1567, 1568, 1569, 1575, 1576, 1577, 1583, 1584, 1585, 1592
 1593, 1594, 1600, 1601, 1602, 1608, 1609, 1610, 1617, 1618, 1619, 1626, 1627, 1631, 1632, 1633
 1639, 1640, 1641, 1646, 1647, 1648, 1655, 1656, 1657, 1663, 1664, 1668, 1669, 1672, 1673, 1674
 1679, 1680, 1684, 1685, 1686, 1692, 1693, 1694, 1700, 1701, 1704, 1705, 1709, 1710, 1713, 1714
 1715, 1721, 1722, 1723, 1729, 1730, 1733, 1734, 1735, 1741, 1743, 1744, 1748, 1750, 1752, 1754
 1755, 1756, 1761, 1762, 1765, 1767, 1769, 1770, 1773, 1775, 1777, 1779, 1781, 1783, 1785, 1786
 1789, 1790, 1794, 1795, 1796, 1801, 1803, 1804, 1807, 1808, 1812, 1813, 1814, 1818, 1819, 1820
 1825, 1827, 1828, 1829, 1834, 1835, 1838, 1839, 1843, 1844, 1847, 1848, 1852, 1854, 1856, 1858
 1859, 1862, 1864, 1865, 1868, 1870, 1872, 1874, 1875, 1878, 1880, 1882, 1883
*Elset, elset=_PickedSet8, internal, instance=Part-1-1, generate
  1,  88,   1
*Elset, elset=__PickedSurf6_S2, internal, instance=Part-1-1, generate
 2113,  2200,     1
*Surface, type=ELEMENT, name=_PickedSurf6, internal
__PickedSurf6_S2, S2
** Constraint: Constraint-1
*Coupling, constraint name=Constraint-1, ref node=_PickedSet7, surface=_PickedSurf6
*Kinematic
*End Assembly
** 
** MATERIALS
** 
*Material, name=Material-1
*Density
0.,
*Hyperelastic, neo hooke
 0.25, 0.5
** 
** BOUNDARY CONDITIONS
** 
** Name: BC-1 Type: Displacement/Rotation
*Boundary
_PickedSet8, 1, 1
_PickedSet8, 2, 2
_PickedSet8, 3, 3
_PickedSet8, 4, 4
_PickedSet8, 5, 5
_PickedSet8, 6, 6
** ----------------------------------------------------------------
** 
** STEP: Step-1
** 
*Step, name=Step-1, nlgeom=YES
*Static
1., 1., 1e-05, 1.
** 
** LOADS
** 
** Name: Load-1   Type: Concentrated force
*Cload
_PickedSet5, 2, -1.
** 
** OUTPUT REQUESTS
** 
*Restart, write, frequency=0
** 
** FIELD OUTPUT: F-Output-1
** 
*Output, field, variable=PRESELECT
** 
** HISTORY OUTPUT: H-Output-1
** 
*Output, history, variable=PRESELECT
*End Step
