*Heading
** Job name: C3D6 Model name: Model-1
** Generated by: Abaqus/CAE 2021
*Preprint, echo=NO, model=NO, history=NO, contact=NO
**
** PARTS
**
*Part, name=Part-1
*Node
      1,          10.,           0.,           0.
      2,           0.,          15.,           0.
      3,         -10.,           0.,           0.
      4,   8.88888931,   1.66666663,           0.
      5,   7.77777767,   3.33333325,           0.
      6,   6.66666651,           5.,           0.
      7,   5.55555534,   6.66666651,           0.
      8,   4.44444466,   8.33333302,           0.
      9,   3.33333325,          10.,           0.
     10,   2.22222233,    11.666667,           0.
     11,   1.11111116,    13.333333,           0.
     12,          -8.,           0.,           0.
     13,          -6.,           0.,           0.
     14,          -4.,           0.,           0.
     15,          -2.,           0.,           0.
     16,           0.,           0.,           0.
     17,           2.,           0.,           0.
     18,           4.,           0.,           0.
     19,           6.,           0.,           0.
     20,           8.,           0.,           0.
** ... 1514 like lines cut
*Element, type=C3D6
   1,   10,   11,   29,   69,   70,   88
   2,   20,    1,    4,   79,   60,   63
   3,   30,   31,   42,   89,   90,  101
   4,   30,    5,   31,   89,   64,   90
   5,   31,    6,   32,   90,   65,   91
   6,   32,    7,   33,   91,   66,   92
   7,   39,   40,   47,   98,   99,  106
   8,   33,    8,   34,   92,   67,   93
   9,   21,   22,   29,   80,   81,   88
  10,   28,    3,   12,   87,   62,   71
  11,   36,   37,   46,   95,   96,  105
  12,   36,   13,   37,   95,   72,   96
  13,   37,   14,   38,   96,   73,   97
  14,   38,   15,   39,   97,   74,   98
  15,   53,   55,   59,  112,  114,  118
  16,   41,   42,   49,  100,  101,  108
  17,   19,   30,   42,   78,   89,  101
  18,   19,   20,   30,   78,   79,   89
  19,   11,    2,   21,   70,   61,   80
  20,   11,   21,   29,   70,   80,   88
** ... 2180 like lines cut
*Nset, nset=top, generate
 1476,  1534,     1
*Elset, elset=top, generate
 2113,  2200,     1
*Nset, nset=bottom, generate
  1,  59,   1
*Elset, elset=bottom, generate
  1,  88,   1
*Nset, nset=RubberSet, generate
    1,  1534,     1
*Elset, elset=RubberSet, generate
    1,  2200,     1
** Section: Section-1
*Solid Section, elset=RubberSet, material=Material-1
,
*End Part
**  
**
** ASSEMBLY
**
*Assembly, name=Assembly
**  
*Instance, name=Part-1-1, part=Part-1
*End Instance
**  
*Node
      1,           0.,           0.,          50.
*Nset, nset=_PickedSet5, internal
 1,
*Nset, nset=_PickedSet7, internal
 1,
*Nset, nset=_PickedSet8, internal, instance=Part-1-1, generate
  1,  59,   1
*Elset, elset=_PickedSet8, internal, instance=Part-1-1, generate
  1,  88,   1
*Elset, elset=__PickedSurf6_S2, internal, instance=Part-1-1, generate
 2113,  2200,     1
*Surface, type=ELEMENT, name=_PickedSurf6, internal
__PickedSurf6_S2, S2
** Constraint: Constraint-1
*Coupling, constraint name=Constraint-1, ref node=_PickedSet7, surface=_PickedSurf6
*Kinematic
*End Assembly
** 
** MATERIALS
** 
*Material, name=Material-1
*Density
0.,
*Hyperelastic, neo hooke
 0.25, 0.5
** 
** BOUNDARY CONDITIONS
** 
** Name: BC-1 Type: Displacement/Rotation
*Boundary
_PickedSet8, 1, 1
_PickedSet8, 2, 2
_PickedSet8, 3, 3
_PickedSet8, 4, 4
_PickedSet8, 5, 5
_PickedSet8, 6, 6
** ----------------------------------------------------------------
** 
** STEP: Step-1
** 
*Step, name=Step-1, nlgeom=YES
*Static
1., 1., 1e-05, 1.
** 
** LOADS
** 
** Name: Load-1   Type: Concentrated force
*Cload
_PickedSet5, 2, -1.
** 
** OUTPUT REQUESTS
** 
*Restart, write, frequency=0
** 
** FIELD OUTPUT: F-Output-1
** 
*Output, field, variable=PRESELECT
** 
** HISTORY OUTPUT: H-Output-1
** 
*Output, history, variable=PRESELECT
*End Step
